      96
 i =        0, time =        0.000, E =      -118.5334059986
  U         0.0000000000        0.0000000000        0.0000000000
  U         0.0000000000        2.7237250000        2.7237250000
  U         2.7237250000        0.0000000000        2.7237250000
  U         2.7237250000        2.7237250000        0.0000000000
  O         1.3618625000        1.3618625000        1.3618625000
  O         1.3618625000        1.3618625000        4.0855875000
  O         1.3618625000        4.0855875000        1.3618625000
  O         4.0855875000        1.3618625000        1.3618625000
  O         1.3618625000        4.0855875000        4.0855875000
  O         4.0855875000        1.3618625000        4.0855875000
  O         4.0855875000        4.0855875000        1.3618625000
  O         4.0855875000        4.0855875000        4.0855875000
  U         0.0000000000        0.0000000000        5.4474500000
  U         0.0000000000        2.7237250000        8.1711750000
  U         2.7237250000        0.0000000000        8.1711750000
  U         2.7237250000        2.7237250000        5.4474500000
  O         1.3618625000        1.3618625000        6.8093125000
  O         1.3618625000        1.3618625000        9.5330375000
  O         1.3618625000        4.0855875000        6.8093125000
  O         4.0855875000        1.3618625000        6.8093125000
  O         1.3618625000        4.0855875000        9.5330375000
  O         4.0855875000        1.3618625000        9.5330375000
  O         4.0855875000        4.0855875000        6.8093125000
  O         4.0855875000        4.0855875000        9.5330375000
  U         0.0000000000        5.4474500000        0.0000000000
  U         0.0000000000        8.1711750000        2.7237250000
  U         2.7237250000        5.4474500000        2.7237250000
  U         2.7237250000        8.1711750000        0.0000000000
  O         1.3618625000        6.8093125000        1.3618625000
  O         1.3618625000        6.8093125000        4.0855875000
  O         1.3618625000        9.5330375000        1.3618625000
  O         4.0855875000        6.8093125000        1.3618625000
  O         1.3618625000        9.5330375000        4.0855875000
  O         4.0855875000        6.8093125000        4.0855875000
  O         4.0855875000        9.5330375000        1.3618625000
  O         4.0855875000        9.5330375000        4.0855875000
  U         0.0000000000        5.4474500000        5.4474500000
  U         0.0000000000        8.1711750000        8.1711750000
  U         2.7237250000        5.4474500000        8.1711750000
  U         2.7237250000        8.1711750000        5.4474500000
  O         1.3618625000        6.8093125000        6.8093125000
  O         1.3618625000        6.8093125000        9.5330375000
  O         1.3618625000        9.5330375000        6.8093125000
  O         4.0855875000        6.8093125000        6.8093125000
  O         1.3618625000        9.5330375000        9.5330375000
  O         4.0855875000        6.8093125000        9.5330375000
  O         4.0855875000        9.5330375000        6.8093125000
  O         4.0855875000        9.5330375000        9.5330375000
  U         5.4474500000        0.0000000000        0.0000000000
  U         5.4474500000        2.7237250000        2.7237250000
  U         8.1711750000        0.0000000000        2.7237250000
  U         8.1711750000        2.7237250000        0.0000000000
  O         6.8093125000        1.3618625000        1.3618625000
  O         6.8093125000        1.3618625000        4.0855875000
  O         6.8093125000        4.0855875000        1.3618625000
  O         9.5330375000        1.3618625000        1.3618625000
  O         6.8093125000        4.0855875000        4.0855875000
  O         9.5330375000        1.3618625000        4.0855875000
  O         9.5330375000        4.0855875000        1.3618625000
  O         9.5330375000        4.0855875000        4.0855875000
  U         5.4474500000        0.0000000000        5.4474500000
  U         5.4474500000        2.7237250000        8.1711750000
  U         8.1711750000        0.0000000000        8.1711750000
  U         8.1711750000        2.7237250000        5.4474500000
  O         6.8093125000        1.3618625000        6.8093125000
  O         6.8093125000        1.3618625000        9.5330375000
  O         6.8093125000        4.0855875000        6.8093125000
  O         9.5330375000        1.3618625000        6.8093125000
  O         6.8093125000        4.0855875000        9.5330375000
  O         9.5330375000        1.3618625000        9.5330375000
  O         9.5330375000        4.0855875000        6.8093125000
  O         9.5330375000        4.0855875000        9.5330375000
  U         5.4474500000        5.4474500000        0.0000000000
  U         5.4474500000        8.1711750000        2.7237250000
  U         8.1711750000        5.4474500000        2.7237250000
  U         8.1711750000        8.1711750000        0.0000000000
  O         6.8093125000        6.8093125000        1.3618625000
  O         6.8093125000        6.8093125000        4.0855875000
  O         6.8093125000        9.5330375000        1.3618625000
  O         9.5330375000        6.8093125000        1.3618625000
  O         6.8093125000        9.5330375000        4.0855875000
  O         9.5330375000        6.8093125000        4.0855875000
  O         9.5330375000        9.5330375000        1.3618625000
  O         9.5330375000        9.5330375000        4.0855875000
  U         5.4474500000        5.4474500000        5.4474500000
  U         5.4474500000        8.1711750000        8.1711750000
  U         8.1711750000        5.4474500000        8.1711750000
  U         8.1711750000        8.1711750000        5.4474500000
  O         6.8093125000        6.8093125000        6.8093125000
  O         6.8093125000        6.8093125000        9.5330375000
  O         6.8093125000        9.5330375000        6.8093125000
  O         9.5330375000        6.8093125000        6.8093125000
  O         6.8093125000        9.5330375000        9.5330375000
  O         9.5330375000        6.8093125000        9.5330375000
  O         9.5330375000        9.5330375000        6.8093125000
  O         9.5330375000        9.5330375000        9.5330375000
